<routes>
    <route id="N2.S2" edges="I2_N_zip_in I2_S_out"/>
    <route id="N2.W2" edges="I2_N_zip_in I2_W_out"/>
    <route id="N2.EXIT23" edges="I2_N_zip_in PR_DE_2_3_out"/>
    <route id="N2.N3" edges="I2_N_zip_in I3_N_out"/>
    <route id="N2.S3" edges="I2_N_zip_in I3_S_out"/>
    <route id="N2.E3" edges="I2_N_zip_in I3_E_out"/>
    <route id="S2.N2" edges="I2_S_zip_in I2_N_out"/>
    <route id="S2.W2" edges="I2_S_zip_in I2_W_out"/>
    <route id="S2.EXIT23" edges="I2_S_zip_in PR_DE_2_3_out"/>
    <route id="S2.N3" edges="I2_S_zip_in I3_N_out"/>
    <route id="S2.S3" edges="I2_S_zip_in I3_S_out"/>
    <route id="S2.E3" edges="I2_S_zip_in I3_E_out"/>
    <route id="W2.N2" edges="I2_W_zip_in I2_N_out"/>
    <route id="W2.S2" edges="I2_W_zip_in I2_S_out"/>
    <route id="W2.EXIT23" edges="I2_W_zip_in PR_DE_2_3_out"/>
    <route id="W2.N3" edges="I2_W_zip_in I3_N_out"/>
    <route id="W2.S3" edges="I2_W_zip_in I3_S_out"/>
    <route id="W2.E3" edges="I2_W_zip_in I3_E_out"/>
    <route id="ENTER32.N2" edges="PR_DE_3_2_in I2_N_out"/>
    <route id="ENTER32.S2" edges="PR_DE_3_2_in I2_S_out"/>
    <route id="ENTER32.W2" edges="PR_DE_3_2_in I2_W_out"/>
    <route id="N3.N2" edges="I3_N_zip_in I2_N_out"/>
    <route id="N3.S2" edges="I3_N_zip_in I2_S_out"/>
    <route id="N3.W2" edges="I3_N_zip_in I2_W_out"/>
    <route id="N3.S3" edges="I3_N_zip_in I3_S_out"/>
    <route id="N3.EXIT32" edges="I3_N_zip_in PR_DE_3_2_out"/>
    <route id="N3.E3" edges="I3_N_zip_in I3_E_out"/>
    <route id="S3.N2" edges="I3_S_zip_in I2_N_out"/>
    <route id="S3.S2" edges="I3_S_zip_in I2_S_out"/>
    <route id="S3.W2" edges="I3_S_zip_in I2_W_out"/>
    <route id="S3.N3" edges="I3_S_zip_in I3_N_out"/>
    <route id="S3.EXIT32" edges="I3_S_zip_in PR_DE_3_2_out"/>
    <route id="S3.E3" edges="I3_S_zip_in I3_E_out"/>
    <route id="ENTER23.N3" edges="PR_DE_2_3_in I3_N_out"/>
    <route id="ENTER23.S3" edges="PR_DE_2_3_in I3_S_out"/>
    <route id="ENTER23.E3" edges="PR_DE_2_3_in I3_E_out"/>
    <route id="E3.N2" edges="I3_E_zip_in I2_N_out"/>
    <route id="E3.S2" edges="I3_E_zip_in I2_S_out"/>
    <route id="E3.W2" edges="I3_E_zip_in I2_W_out"/>
    <route id="E3.N3" edges="I3_E_zip_in I3_N_out"/>
    <route id="E3.S3" edges="I3_E_zip_in I3_S_out"/>
    <route id="E3.EXIT32" edges="I3_E_zip_in PR_DE_3_2_out"/>
</routes>
