<routes>
    <vType id="passenger" vClass="passenger" carFollowModel="Krauss" accel="2.0" tau="1.2" startupDelay="0" jmDriveAfterYellowTime="-1" sigmaStep="0.1" desiredMaxSpeed="17.88" lcStrategic="1" lcSpeedGainLookahead="0"  lcLookaheadLeft="3" lcOpposite="0" jmTimegapMinor="1.0" jmStoplineGap="2.0" jmIgnoreFoeProb="1" impatience="off" decel="4.5" emergencyDecel="9" sigma="0.0" length="4.5" width="1.8" height="1.5" minGap="1.4"  maxSpeed="50" departLane="best" guiShape="passenger" />    
    <vType id="truck" vClass="truck" carFollowModel="Krauss" lcSpeedGainLookahead="0" startupDelay="0" lcLookaheadLeft="3" lcOpposite="0" jmTimegapMinor="1.0" jmStoplineGap="2.0" jmIgnoreFoeProb="1" impatience="off" accel="1.0" decel="4.5" emergencyDecel="6" sigma="0.0" length="18.5" width="2.6" height="4.3" minGap="1.4" tau="1.2" maxSpeed="50" departLane="best" guiShape="truck" />
    <vType id="bus" vClass="bus" carFollowModel="Krauss"  lcSpeedGainLookahead="0" startupDelay="0" lcLookaheadLeft="3" lcOpposite="0" jmTimegapMinor="1.0" jmStoplineGap="2.0" jmIgnoreFoeProb="1" impatience="off" accel="1.2" decel="3.0" emergencyDecel="3" sigma="0.0" length="11" width="2.3" height="4.3" minGap="1.4" tau="1.2" maxSpeed="50" departLane="best" guiShape="bus" />
    <vType id="motorcycle" vClass="motorcycle" carFollowModel="Krauss" lcSpeedGainLookahead="0" startupDelay="0" lcLookaheadLeft="3" lcOpposite="0" jmTimegapMinor="1.0" jmStoplineGap="2.0" jmIgnoreFoeProb="1" impatience="off" accel="6.0" decel="4.5" emergencyDecel="9" sigma="0.0" length="2.5" width="1.2" height="1.5" minGap="1.4" tau="1.2" maxSpeed="50" departLane="best" guiShape="motorcycle" />
    <vType id="bicycle" vClass="bicycle" carFollowModel="Krauss" lcSpeedGainLookahead="0" startupDelay="0" lcLookaheadLeft="3" lcOpposite="0" jmTimegapMinor="1.0" jmStoplineGap="2.0" jmIgnoreFoeProb="1" impatience="off" accel="1.2" decel="4.5" emergencyDecel="9" sigma="0.0" length="1.7" width="0.8" height="1.5" minGap="0.5" tau="1.2" maxSpeed="20" departLane="best" guiShape="bicycle" />
    <vType id="emergency" vClass="emergency" carFollowModel="Krauss" lcSpeedGainLookahead="0" startupDelay="1" lcLookaheadLeft="3" lcOpposite="0" jmTimegapMinor="1.0" jmStoplineGap="2.0" jmIgnoreFoeProb="1" impatience="off" accel="1.5" decel="4.5" emergencyDecel="9" sigma="0.0" length="11" width="2.6" height="4" minGap="1.4" tau="1.2" maxSpeed="50" departLane="best" guiShape="emergency" /> 
</routes>
